
This summary file was generated by HydroDyn  on 18-Jun-2026 at 11:17:15.




Strip-Theory Volume Calculations(m^3)
-------------------------------------
  Structure Volume     :    6.73547E+03
  Submerged Volume     :    3.74080E+03
  Marine Growth Volume :    0.00000E+00
  Ballasted Volume     :    0.00000E+00
              NOTE: Structure, Submerged and Marine Growth volumes are based on members not modelled with WAMIT
                      Ballasted volume is computed from all members which are marked as filled in the HydroDyn input file, regardless of PropPot flag



Total Buoyancy loads summed about ( 0.0, 0.0, 0.0 )
---------------------------------------------------
                                BuoyFxi               BuoyFyi               BuoyFzi               BuoyMxi               BuoyMyi               BuoyMzi 
                                  (N)                   (N)                   (N)                  (N-m)                 (N-m)                 (N-m)  
 External:                  2.094689E-02         -5.661194E-04          3.760187E+07          8.350549E-01          2.971705E+02          1.488965E-01
 Internal:                  0.000000E+00          0.000000E+00          0.000000E+00          0.000000E+00          0.000000E+00          0.000000E+00
 Total   :                  2.094689E-02         -5.661194E-04          3.760187E+07          8.350549E-01          2.971705E+02          1.488965E-01
              NOTE: External buoyancy is based on members not modelled with WAMIT
                      Internal buoyancy is computed from all members which are marked as filled in the HydroDyn input file, regardless of PropPot flag
                    Total buoyancy does not include WAMIT-modelled buoyancy contribution



Weight loads about ( 0.0, 0.0, 0.0 )
------------------------------------
                                 MGFxi                 MGFyi                 MGFzi                 MGMxi                 MGMyi                 MGMzi  
                                  (N)                   (N)                   (N)                  (N-m)                 (N-m)                 (N-m)  
 Marine Growth:             0.000000E+00          0.000000E+00          0.000000E+00          0.000000E+00          0.000000E+00          0.000000E+00



Nodes (first [  41 ] are joints, remainder are internal nodes)


   i      MbrIndx      Nxi         Nyi         Nzi        Shape          R          SA          SB          t          tMG        MGDens     PropPot    FilledFlag  FilledMass      Cd          CdA         CdB         Ca          CaA         CaB         Cp          Cb         AxCd        AxCa        AxCp        JAxCd       JAxCa       JAxCp     JAxFDMod   JAxVnCOff   JAxFDLoFSc
  (-)       (-)         (m)         (m)         (m)         (-)         (m)         (m)         (m)        (m)         (m)       (kg/m^3)       (-)         (-)        (kg)         (-)         (-)         (-)         (-)         (-)         (-)        (-)         (-)          (-)         (-)         (-)         (-)         (-)         (-)         (-)         (-)         (-)   
     1       -          0.0000      0.0000    -14.0000       -           -           -           -           -       0.000E+00   0.000E+00       -           -           -           -           -           -           -           -           -           -           -           -           -           -       0.000E+00   0.000E+00   1.000E+00          0   0.000E+00   1.000E+00
     2       -          0.0000      0.0000    -12.0000       -           -           -           -           -       0.000E+00   0.000E+00       -           -           -           -           -           -           -           -           -           -           -           -           -           -       0.000E+00   0.000E+00   1.000E+00          0   0.000E+00   1.000E+00
     3       -          0.0000      0.0000      9.3000       -           -           -           -           -       0.000E+00   0.000E+00       -           -           -           -           -           -           -           -           -           -           -           -           -           -       0.000E+00   0.000E+00   1.000E+00          0   0.000E+00   1.000E+00
     4       -          0.0000      0.0000     11.0000       -           -           -           -           -       0.000E+00   0.000E+00       -           -           -           -           -           -           -           -           -           -           -           -           -           -       0.000E+00   0.000E+00   1.000E+00          0   0.000E+00   1.000E+00
     5       -         12.9900     22.5000    -14.0000       -           -           -           -           -       0.000E+00   0.000E+00       -           -           -           -           -           -           -           -           -           -           -           -           -           -       0.000E+00   0.000E+00   1.000E+00          0   0.000E+00   1.000E+00
     6       -         12.9900     22.5000    -12.0000       -           -           -           -           -       0.000E+00   0.000E+00       -           -           -           -           -           -           -           -           -           -           -           -           -           -       0.000E+00   0.000E+00   1.000E+00          0   0.000E+00   1.000E+00
     7       -         12.9900     22.5000      9.3000       -           -           -           -           -       0.000E+00   0.000E+00       -           -           -           -           -           -           -           -           -           -           -           -           -           -       0.000E+00   0.000E+00   1.000E+00          0   0.000E+00   1.000E+00
     8       -         12.9900     22.5000     11.0000       -           -           -           -           -       0.000E+00   0.000E+00       -           -           -           -           -           -           -           -           -           -           -           -           -           -       0.000E+00   0.000E+00   1.000E+00          0   0.000E+00   1.000E+00
     9       -        -25.9800      0.0000    -14.0000       -           -           -           -           -       0.000E+00   0.000E+00       -           -           -           -           -           -           -           -           -           -           -           -           -           -       0.000E+00   0.000E+00   1.000E+00          0   0.000E+00   1.000E+00
    10       -        -25.9800      0.0000    -12.0000       -           -           -           -           -       0.000E+00   0.000E+00       -           -           -           -           -           -           -           -           -           -           -           -           -           -       0.000E+00   0.000E+00   1.000E+00          0   0.000E+00   1.000E+00
    11       -        -25.9800      0.0000      9.3000       -           -           -           -           -       0.000E+00   0.000E+00       -           -           -           -           -           -           -           -           -           -           -           -           -           -       0.000E+00   0.000E+00   1.000E+00          0   0.000E+00   1.000E+00
    12       -        -25.9800      0.0000     11.0000       -           -           -           -           -       0.000E+00   0.000E+00       -           -           -           -           -           -           -           -           -           -           -           -           -           -       0.000E+00   0.000E+00   1.000E+00          0   0.000E+00   1.000E+00
    13       -         12.9900    -22.5000    -14.0000       -           -           -           -           -       0.000E+00   0.000E+00       -           -           -           -           -           -           -           -           -           -           -           -           -           -       0.000E+00   0.000E+00   1.000E+00          0   0.000E+00   1.000E+00
    14       -         12.9900    -22.5000    -12.0000       -           -           -           -           -       0.000E+00   0.000E+00       -           -           -           -           -           -           -           -           -           -           -           -           -           -       0.000E+00   0.000E+00   1.000E+00          0   0.000E+00   1.000E+00
    15       -         12.9900    -22.5000      9.3000       -           -           -           -           -       0.000E+00   0.000E+00       -           -           -           -           -           -           -           -           -           -           -           -           -           -       0.000E+00   0.000E+00   1.000E+00          0   0.000E+00   1.000E+00
    16       -         12.9900    -22.5000     11.0000       -           -           -           -           -       0.000E+00   0.000E+00       -           -           -           -           -           -           -           -           -           -           -           -           -           -       0.000E+00   0.000E+00   1.000E+00          0   0.000E+00   1.000E+00
    17       -          8.6600     20.0000      9.3000       -           -           -           -           -       0.000E+00   0.000E+00       -           -           -           -           -           -           -           -           -           -           -           -           -           -       0.000E+00   0.000E+00   1.000E+00          0   0.000E+00   1.000E+00
    18       -        -21.6510      2.5000      9.3000       -           -           -           -           -       0.000E+00   0.000E+00       -           -           -           -           -           -           -           -           -           -           -           -           -           -       0.000E+00   0.000E+00   1.000E+00          0   0.000E+00   1.000E+00
    19       -        -21.6510     -2.5000      9.3000       -           -           -           -           -       0.000E+00   0.000E+00       -           -           -           -           -           -           -           -           -           -           -           -           -           -       0.000E+00   0.000E+00   1.000E+00          0   0.000E+00   1.000E+00
    20       -          8.6600    -20.0000      9.3000       -           -           -           -           -       0.000E+00   0.000E+00       -           -           -           -           -           -           -           -           -           -           -           -           -           -       0.000E+00   0.000E+00   1.000E+00          0   0.000E+00   1.000E+00
    21       -         12.9900    -17.5000      9.3000       -           -           -           -           -       0.000E+00   0.000E+00       -           -           -           -           -           -           -           -           -           -           -           -           -           -       0.000E+00   0.000E+00   1.000E+00          0   0.000E+00   1.000E+00
    22       -         12.9900     17.5000      9.3000       -           -           -           -           -       0.000E+00   0.000E+00       -           -           -           -           -           -           -           -           -           -           -           -           -           -       0.000E+00   0.000E+00   1.000E+00          0   0.000E+00   1.000E+00
    23       -         10.4900     18.1700      9.3000       -           -           -           -           -       0.000E+00   0.000E+00       -           -           -           -           -           -           -           -           -           -           -           -           -           -       0.000E+00   0.000E+00   1.000E+00          0   0.000E+00   1.000E+00
    24       -          1.2500      2.1700      9.3000       -           -           -           -           -       0.000E+00   0.000E+00       -           -           -           -           -           -           -           -           -           -           -           -           -           -       0.000E+00   0.000E+00   1.000E+00          0   0.000E+00   1.000E+00
    25       -         -2.2500      0.0000      9.3000       -           -           -           -           -       0.000E+00   0.000E+00       -           -           -           -           -           -           -           -           -           -           -           -           -           -       0.000E+00   0.000E+00   1.000E+00          0   0.000E+00   1.000E+00
    26       -        -20.9810      0.0000      9.3000       -           -           -           -           -       0.000E+00   0.000E+00       -           -           -           -           -           -           -           -           -           -           -           -           -           -       0.000E+00   0.000E+00   1.000E+00          0   0.000E+00   1.000E+00
    27       -          1.2500     -2.1700      9.3000       -           -           -           -           -       0.000E+00   0.000E+00       -           -           -           -           -           -           -           -           -           -           -           -           -           -       0.000E+00   0.000E+00   1.000E+00          0   0.000E+00   1.000E+00
    28       -         10.4900    -18.1700      9.3000       -           -           -           -           -       0.000E+00   0.000E+00       -           -           -           -           -           -           -           -           -           -           -           -           -           -       0.000E+00   0.000E+00   1.000E+00          0   0.000E+00   1.000E+00
    29       -          8.6600     20.0000    -12.0000       -           -           -           -           -       0.000E+00   0.000E+00       -           -           -           -           -           -           -           -           -           -           -           -           -           -       0.000E+00   0.000E+00   1.000E+00          0   0.000E+00   1.000E+00
    30       -        -21.6510      2.5000    -12.0000       -           -           -           -           -       0.000E+00   0.000E+00       -           -           -           -           -           -           -           -           -           -           -           -           -           -       0.000E+00   0.000E+00   1.000E+00          0   0.000E+00   1.000E+00
    31       -        -21.6510     -2.5000    -12.0000       -           -           -           -           -       0.000E+00   0.000E+00       -           -           -           -           -           -           -           -           -           -           -           -           -           -       0.000E+00   0.000E+00   1.000E+00          0   0.000E+00   1.000E+00
    32       -          8.6600    -20.0000    -12.0000       -           -           -           -           -       0.000E+00   0.000E+00       -           -           -           -           -           -           -           -           -           -           -           -           -           -       0.000E+00   0.000E+00   1.000E+00          0   0.000E+00   1.000E+00
    33       -         12.9900    -17.5000    -12.0000       -           -           -           -           -       0.000E+00   0.000E+00       -           -           -           -           -           -           -           -           -           -           -           -           -           -       0.000E+00   0.000E+00   1.000E+00          0   0.000E+00   1.000E+00
    34       -         12.9900     17.5000    -12.0000       -           -           -           -           -       0.000E+00   0.000E+00       -           -           -           -           -           -           -           -           -           -           -           -           -           -       0.000E+00   0.000E+00   1.000E+00          0   0.000E+00   1.000E+00
    35       -         10.4900     18.1700    -12.0000       -           -           -           -           -       0.000E+00   0.000E+00       -           -           -           -           -           -           -           -           -           -           -           -           -           -       0.000E+00   0.000E+00   1.000E+00          0   0.000E+00   1.000E+00
    36       -          1.2500      2.1700    -12.0000       -           -           -           -           -       0.000E+00   0.000E+00       -           -           -           -           -           -           -           -           -           -           -           -           -           -       0.000E+00   0.000E+00   1.000E+00          0   0.000E+00   1.000E+00
    37       -         -2.7500      0.0000    -12.0000       -           -           -           -           -       0.000E+00   0.000E+00       -           -           -           -           -           -           -           -           -           -           -           -           -           -       0.000E+00   0.000E+00   1.000E+00          0   0.000E+00   1.000E+00
    38       -        -20.9810      0.0000    -12.0000       -           -           -           -           -       0.000E+00   0.000E+00       -           -           -           -           -           -           -           -           -           -           -           -           -           -       0.000E+00   0.000E+00   1.000E+00          0   0.000E+00   1.000E+00
    39       -          1.2500     -2.1700    -12.0000       -           -           -           -           -       0.000E+00   0.000E+00       -           -           -           -           -           -           -           -           -           -           -           -           -           -       0.000E+00   0.000E+00   1.000E+00          0   0.000E+00   1.000E+00
    40       -         10.4900    -18.1700    -12.0000       -           -           -           -           -       0.000E+00   0.000E+00       -           -           -           -           -           -           -           -           -           -           -           -           -           -       0.000E+00   0.000E+00   1.000E+00          0   0.000E+00   1.000E+00
    41       -          0.0000      0.0000     12.0000       -           -           -           -           -       0.000E+00   0.000E+00       -           -           -           -           -           -           -           -           -           -           -           -           -           -       0.000E+00   0.000E+00   1.000E+00          0   0.000E+00   1.000E+00
    42           1      0.0000      0.0000    -12.0769      C        2.500E+00      -           -        5.000E-02   0.000E+00   0.000E+00           F           F   0.000E+00   5.600E-01      -           -        0.000E+00      -           -        1.000E+00   1.000E+00   0.000E+00   0.000E+00   1.000E+00         -           -           -           -           -           -  
    43           1      0.0000      0.0000    -10.1538      C        2.500E+00      -           -        5.000E-02   0.000E+00   0.000E+00           F           F   0.000E+00   5.600E-01      -           -        0.000E+00      -           -        1.000E+00   1.000E+00   0.000E+00   0.000E+00   1.000E+00         -           -           -           -           -           -  
    44           1      0.0000      0.0000     -8.2308      C        2.500E+00      -           -        5.000E-02   0.000E+00   0.000E+00           F           F   0.000E+00   5.600E-01      -           -        0.000E+00      -           -        1.000E+00   1.000E+00   0.000E+00   0.000E+00   1.000E+00         -           -           -           -           -           -  
    45           1      0.0000      0.0000     -6.3077      C        2.500E+00      -           -        5.000E-02   0.000E+00   0.000E+00           F           F   0.000E+00   5.600E-01      -           -        0.000E+00      -           -        1.000E+00   1.000E+00   0.000E+00   0.000E+00   1.000E+00         -           -           -           -           -           -  
    46           1      0.0000      0.0000     -4.3846      C        2.500E+00      -           -        5.000E-02   0.000E+00   0.000E+00           F           F   0.000E+00   5.600E-01      -           -        0.000E+00      -           -        1.000E+00   1.000E+00   0.000E+00   0.000E+00   1.000E+00         -           -           -           -           -           -  
    47           1      0.0000      0.0000     -2.4615      C        2.500E+00      -           -        5.000E-02   0.000E+00   0.000E+00           F           F   0.000E+00   5.600E-01      -           -        0.000E+00      -           -        1.000E+00   1.000E+00   0.000E+00   0.000E+00   1.000E+00         -           -           -           -           -           -  
    48           1      0.0000      0.0000     -0.5385      C        2.500E+00      -           -        5.000E-02   0.000E+00   0.000E+00           F           F   0.000E+00   5.600E-01      -           -        0.000E+00      -           -        1.000E+00   1.000E+00   0.000E+00   0.000E+00   1.000E+00         -           -           -           -           -           -  
    49           1      0.0000      0.0000      1.3846      C        2.500E+00      -           -        5.000E-02   0.000E+00   0.000E+00           F           F   0.000E+00   5.600E-01      -           -        0.000E+00      -           -        1.000E+00   1.000E+00   0.000E+00   0.000E+00   1.000E+00         -           -           -           -           -           -  
    50           1      0.0000      0.0000      3.3077      C        2.500E+00      -           -        5.000E-02   0.000E+00   0.000E+00           F           F   0.000E+00   5.600E-01      -           -        0.000E+00      -           -        1.000E+00   1.000E+00   0.000E+00   0.000E+00   1.000E+00         -           -           -           -           -           -  
    51           1      0.0000      0.0000      5.2308      C        2.500E+00      -           -        5.000E-02   0.000E+00   0.000E+00           F           F   0.000E+00   5.600E-01      -           -        0.000E+00      -           -        1.000E+00   1.000E+00   0.000E+00   0.000E+00   1.000E+00         -           -           -           -           -           -  
    52           1      0.0000      0.0000      7.1538      C        2.500E+00      -           -        5.000E-02   0.000E+00   0.000E+00           F           F   0.000E+00   5.600E-01      -           -        0.000E+00      -           -        1.000E+00   1.000E+00   0.000E+00   0.000E+00   1.000E+00         -           -           -           -           -           -  
    53           1      0.0000      0.0000      9.0769      C        2.500E+00      -           -        5.000E-02   0.000E+00   0.000E+00           F           F   0.000E+00   5.600E-01      -           -        0.000E+00      -           -        1.000E+00   1.000E+00   0.000E+00   0.000E+00   1.000E+00         -           -           -           -           -           -  
    54          15     12.9900     22.5000    -12.0769      C        5.000E+00      -           -        2.000E-02   0.000E+00   0.000E+00           F           F   0.000E+00   5.600E-01      -           -        0.000E+00      -           -        1.000E+00   1.000E+00   0.000E+00   0.000E+00   1.000E+00         -           -           -           -           -           -  
    55          15     12.9900     22.5000    -10.1538      C        5.000E+00      -           -        2.000E-02   0.000E+00   0.000E+00           F           F   0.000E+00   5.600E-01      -           -        0.000E+00      -           -        1.000E+00   1.000E+00   0.000E+00   0.000E+00   1.000E+00         -           -           -           -           -           -  
    56          15     12.9900     22.5000     -8.2308      C        5.000E+00      -           -        2.000E-02   0.000E+00   0.000E+00           F           F   0.000E+00   5.600E-01      -           -        0.000E+00      -           -        1.000E+00   1.000E+00   0.000E+00   0.000E+00   1.000E+00         -           -           -           -           -           -  
    57          15     12.9900     22.5000     -6.3077      C        5.000E+00      -           -        2.000E-02   0.000E+00   0.000E+00           F           F   0.000E+00   5.600E-01      -           -        0.000E+00      -           -        1.000E+00   1.000E+00   0.000E+00   0.000E+00   1.000E+00         -           -           -           -           -           -  
    58          15     12.9900     22.5000     -4.3846      C        5.000E+00      -           -        2.000E-02   0.000E+00   0.000E+00           F           F   0.000E+00   5.600E-01      -           -        0.000E+00      -           -        1.000E+00   1.000E+00   0.000E+00   0.000E+00   1.000E+00         -           -           -           -           -           -  
    59          15     12.9900     22.5000     -2.4615      C        5.000E+00      -           -        2.000E-02   0.000E+00   0.000E+00           F           F   0.000E+00   5.600E-01      -           -        0.000E+00      -           -        1.000E+00   1.000E+00   0.000E+00   0.000E+00   1.000E+00         -           -           -           -           -           -  
    60          15     12.9900     22.5000     -0.5385      C        5.000E+00      -           -        2.000E-02   0.000E+00   0.000E+00           F           F   0.000E+00   5.600E-01      -           -        0.000E+00      -           -        1.000E+00   1.000E+00   0.000E+00   0.000E+00   1.000E+00         -           -           -           -           -           -  
    61          15     12.9900     22.5000      1.3846      C        5.000E+00      -           -        2.000E-02   0.000E+00   0.000E+00           F           F   0.000E+00   5.600E-01      -           -        0.000E+00      -           -        1.000E+00   1.000E+00   0.000E+00   0.000E+00   1.000E+00         -           -           -           -           -           -  
    62          15     12.9900     22.5000      3.3077      C        5.000E+00      -           -        2.000E-02   0.000E+00   0.000E+00           F           F   0.000E+00   5.600E-01      -           -        0.000E+00      -           -        1.000E+00   1.000E+00   0.000E+00   0.000E+00   1.000E+00         -           -           -           -           -           -  
    63          15     12.9900     22.5000      5.2308      C        5.000E+00      -           -        2.000E-02   0.000E+00   0.000E+00           F           F   0.000E+00   5.600E-01      -           -        0.000E+00      -           -        1.000E+00   1.000E+00   0.000E+00   0.000E+00   1.000E+00         -           -           -           -           -           -  
    64          15     12.9900     22.5000      7.1538      C        5.000E+00      -           -        2.000E-02   0.000E+00   0.000E+00           F           F   0.000E+00   5.600E-01      -           -        0.000E+00      -           -        1.000E+00   1.000E+00   0.000E+00   0.000E+00   1.000E+00         -           -           -           -           -           -  
    65          15     12.9900     22.5000      9.0769      C        5.000E+00      -           -        2.000E-02   0.000E+00   0.000E+00           F           F   0.000E+00   5.600E-01      -           -        0.000E+00      -           -        1.000E+00   1.000E+00   0.000E+00   0.000E+00   1.000E+00         -           -           -           -           -           -  
    66          29    -25.9800      0.0000    -12.0769      C        5.000E+00      -           -        2.000E-02   0.000E+00   0.000E+00           F           F   0.000E+00   5.600E-01      -           -        0.000E+00      -           -        1.000E+00   1.000E+00   0.000E+00   0.000E+00   1.000E+00         -           -           -           -           -           -  
    67          29    -25.9800      0.0000    -10.1538      C        5.000E+00      -           -        2.000E-02   0.000E+00   0.000E+00           F           F   0.000E+00   5.600E-01      -           -        0.000E+00      -           -        1.000E+00   1.000E+00   0.000E+00   0.000E+00   1.000E+00         -           -           -           -           -           -  
    68          29    -25.9800      0.0000     -8.2308      C        5.000E+00      -           -        2.000E-02   0.000E+00   0.000E+00           F           F   0.000E+00   5.600E-01      -           -        0.000E+00      -           -        1.000E+00   1.000E+00   0.000E+00   0.000E+00   1.000E+00         -           -           -           -           -           -  
    69          29    -25.9800      0.0000     -6.3077      C        5.000E+00      -           -        2.000E-02   0.000E+00   0.000E+00           F           F   0.000E+00   5.600E-01      -           -        0.000E+00      -           -        1.000E+00   1.000E+00   0.000E+00   0.000E+00   1.000E+00         -           -           -           -           -           -  
    70          29    -25.9800      0.0000     -4.3846      C        5.000E+00      -           -        2.000E-02   0.000E+00   0.000E+00           F           F   0.000E+00   5.600E-01      -           -        0.000E+00      -           -        1.000E+00   1.000E+00   0.000E+00   0.000E+00   1.000E+00         -           -           -           -           -           -  
    71          29    -25.9800      0.0000     -2.4615      C        5.000E+00      -           -        2.000E-02   0.000E+00   0.000E+00           F           F   0.000E+00   5.600E-01      -           -        0.000E+00      -           -        1.000E+00   1.000E+00   0.000E+00   0.000E+00   1.000E+00         -           -           -           -           -           -  
    72          29    -25.9800      0.0000     -0.5385      C        5.000E+00      -           -        2.000E-02   0.000E+00   0.000E+00           F           F   0.000E+00   5.600E-01      -           -        0.000E+00      -           -        1.000E+00   1.000E+00   0.000E+00   0.000E+00   1.000E+00         -           -           -           -           -           -  
    73          29    -25.9800      0.0000      1.3846      C        5.000E+00      -           -        2.000E-02   0.000E+00   0.000E+00           F           F   0.000E+00   5.600E-01      -           -        0.000E+00      -           -        1.000E+00   1.000E+00   0.000E+00   0.000E+00   1.000E+00         -           -           -           -           -           -  
    74          29    -25.9800      0.0000      3.3077      C        5.000E+00      -           -        2.000E-02   0.000E+00   0.000E+00           F           F   0.000E+00   5.600E-01      -           -        0.000E+00      -           -        1.000E+00   1.000E+00   0.000E+00   0.000E+00   1.000E+00         -           -           -           -           -           -  
    75          29    -25.9800      0.0000      5.2308      C        5.000E+00      -           -        2.000E-02   0.000E+00   0.000E+00           F           F   0.000E+00   5.600E-01      -           -        0.000E+00      -           -        1.000E+00   1.000E+00   0.000E+00   0.000E+00   1.000E+00         -           -           -           -           -           -  
    76          29    -25.9800      0.0000      7.1538      C        5.000E+00      -           -        2.000E-02   0.000E+00   0.000E+00           F           F   0.000E+00   5.600E-01      -           -        0.000E+00      -           -        1.000E+00   1.000E+00   0.000E+00   0.000E+00   1.000E+00         -           -           -           -           -           -  
    77          29    -25.9800      0.0000      9.0769      C        5.000E+00      -           -        2.000E-02   0.000E+00   0.000E+00           F           F   0.000E+00   5.600E-01      -           -        0.000E+00      -           -        1.000E+00   1.000E+00   0.000E+00   0.000E+00   1.000E+00         -           -           -           -           -           -  
    78          43     12.9900    -22.5000    -12.0769      C        5.000E+00      -           -        2.000E-02   0.000E+00   0.000E+00           F           F   0.000E+00   5.600E-01      -           -        0.000E+00      -           -        1.000E+00   1.000E+00   0.000E+00   0.000E+00   1.000E+00         -           -           -           -           -           -  
    79          43     12.9900    -22.5000    -10.1538      C        5.000E+00      -           -        2.000E-02   0.000E+00   0.000E+00           F           F   0.000E+00   5.600E-01      -           -        0.000E+00      -           -        1.000E+00   1.000E+00   0.000E+00   0.000E+00   1.000E+00         -           -           -           -           -           -  
    80          43     12.9900    -22.5000     -8.2308      C        5.000E+00      -           -        2.000E-02   0.000E+00   0.000E+00           F           F   0.000E+00   5.600E-01      -           -        0.000E+00      -           -        1.000E+00   1.000E+00   0.000E+00   0.000E+00   1.000E+00         -           -           -           -           -           -  
    81          43     12.9900    -22.5000     -6.3077      C        5.000E+00      -           -        2.000E-02   0.000E+00   0.000E+00           F           F   0.000E+00   5.600E-01      -           -        0.000E+00      -           -        1.000E+00   1.000E+00   0.000E+00   0.000E+00   1.000E+00         -           -           -           -           -           -  
    82          43     12.9900    -22.5000     -4.3846      C        5.000E+00      -           -        2.000E-02   0.000E+00   0.000E+00           F           F   0.000E+00   5.600E-01      -           -        0.000E+00      -           -        1.000E+00   1.000E+00   0.000E+00   0.000E+00   1.000E+00         -           -           -           -           -           -  
    83          43     12.9900    -22.5000     -2.4615      C        5.000E+00      -           -        2.000E-02   0.000E+00   0.000E+00           F           F   0.000E+00   5.600E-01      -           -        0.000E+00      -           -        1.000E+00   1.000E+00   0.000E+00   0.000E+00   1.000E+00         -           -           -           -           -           -  
    84          43     12.9900    -22.5000     -0.5385      C        5.000E+00      -           -        2.000E-02   0.000E+00   0.000E+00           F           F   0.000E+00   5.600E-01      -           -        0.000E+00      -           -        1.000E+00   1.000E+00   0.000E+00   0.000E+00   1.000E+00         -           -           -           -           -           -  
    85          43     12.9900    -22.5000      1.3846      C        5.000E+00      -           -        2.000E-02   0.000E+00   0.000E+00           F           F   0.000E+00   5.600E-01      -           -        0.000E+00      -           -        1.000E+00   1.000E+00   0.000E+00   0.000E+00   1.000E+00         -           -           -           -           -           -  
    86          43     12.9900    -22.5000      3.3077      C        5.000E+00      -           -        2.000E-02   0.000E+00   0.000E+00           F           F   0.000E+00   5.600E-01      -           -        0.000E+00      -           -        1.000E+00   1.000E+00   0.000E+00   0.000E+00   1.000E+00         -           -           -           -           -           -  
    87          43     12.9900    -22.5000      5.2308      C        5.000E+00      -           -        2.000E-02   0.000E+00   0.000E+00           F           F   0.000E+00   5.600E-01      -           -        0.000E+00      -           -        1.000E+00   1.000E+00   0.000E+00   0.000E+00   1.000E+00         -           -           -           -           -           -  
    88          43     12.9900    -22.5000      7.1538      C        5.000E+00      -           -        2.000E-02   0.000E+00   0.000E+00           F           F   0.000E+00   5.600E-01      -           -        0.000E+00      -           -        1.000E+00   1.000E+00   0.000E+00   0.000E+00   1.000E+00         -           -           -           -           -           -  
    89          43     12.9900    -22.5000      9.0769      C        5.000E+00      -           -        2.000E-02   0.000E+00   0.000E+00           F           F   0.000E+00   5.600E-01      -           -        0.000E+00      -           -        1.000E+00   1.000E+00   0.000E+00   0.000E+00   1.000E+00         -           -           -           -           -           -  
    90          57      6.9761     19.0278      9.3000      C        5.000E-01      -           -        1.000E-02   0.000E+00   0.000E+00           F           F   0.000E+00   5.600E-01      -           -        0.000E+00      -           -        1.000E+00   1.000E+00   0.000E+00   0.000E+00   1.000E+00         -           -           -           -           -           -  
    91          57      5.2921     18.0556      9.3000      C        5.000E-01      -           -        1.000E-02   0.000E+00   0.000E+00           F           F   0.000E+00   5.600E-01      -           -        0.000E+00      -           -        1.000E+00   1.000E+00   0.000E+00   0.000E+00   1.000E+00         -           -           -           -           -           -  
    92          57      3.6082     17.0833      9.3000      C        5.000E-01      -           -        1.000E-02   0.000E+00   0.000E+00           F           F   0.000E+00   5.600E-01      -           -        0.000E+00      -           -        1.000E+00   1.000E+00   0.000E+00   0.000E+00   1.000E+00         -           -           -           -           -           -  
    93          57      1.9242     16.1111      9.3000      C        5.000E-01      -           -        1.000E-02   0.000E+00   0.000E+00           F           F   0.000E+00   5.600E-01      -           -        0.000E+00      -           -        1.000E+00   1.000E+00   0.000E+00   0.000E+00   1.000E+00         -           -           -           -           -           -  
    94          57      0.2403     15.1389      9.3000      C        5.000E-01      -           -        1.000E-02   0.000E+00   0.000E+00           F           F   0.000E+00   5.600E-01      -           -        0.000E+00      -           -        1.000E+00   1.000E+00   0.000E+00   0.000E+00   1.000E+00         -           -           -           -           -           -  
    95          57     -1.4437     14.1667      9.3000      C        5.000E-01      -           -        1.000E-02   0.000E+00   0.000E+00           F           F   0.000E+00   5.600E-01      -           -        0.000E+00      -           -        1.000E+00   1.000E+00   0.000E+00   0.000E+00   1.000E+00         -           -           -           -           -           -  
    96          57     -3.1276     13.1944      9.3000      C        5.000E-01      -           -        1.000E-02   0.000E+00   0.000E+00           F           F   0.000E+00   5.600E-01      -           -        0.000E+00      -           -        1.000E+00   1.000E+00   0.000E+00   0.000E+00   1.000E+00         -           -           -           -           -           -  
    97          57     -4.8116     12.2222      9.3000      C        5.000E-01      -           -        1.000E-02   0.000E+00   0.000E+00           F           F   0.000E+00   5.600E-01      -           -        0.000E+00      -           -        1.000E+00   1.000E+00   0.000E+00   0.000E+00   1.000E+00         -           -           -           -           -           -  
    98          57     -6.4955     11.2500      9.3000      C        5.000E-01      -           -        1.000E-02   0.000E+00   0.000E+00           F           F   0.000E+00   5.600E-01      -           -        0.000E+00      -           -        1.000E+00   1.000E+00   0.000E+00   0.000E+00   1.000E+00         -           -           -           -           -           -  
    99          57     -8.1794     10.2778      9.3000      C        5.000E-01      -           -        1.000E-02   0.000E+00   0.000E+00           F           F   0.000E+00   5.600E-01      -           -        0.000E+00      -           -        1.000E+00   1.000E+00   0.000E+00   0.000E+00   1.000E+00         -           -           -           -           -           -  
   100          57     -9.8634      9.3056      9.3000      C        5.000E-01      -           -        1.000E-02   0.000E+00   0.000E+00           F           F   0.000E+00   5.600E-01      -           -        0.000E+00      -           -        1.000E+00   1.000E+00   0.000E+00   0.000E+00   1.000E+00         -           -           -           -           -           -  
   101          57    -11.5473      8.3333      9.3000      C        5.000E-01      -           -        1.000E-02   0.000E+00   0.000E+00           F           F   0.000E+00   5.600E-01      -           -        0.000E+00      -           -        1.000E+00   1.000E+00   0.000E+00   0.000E+00   1.000E+00         -           -           -           -           -           -  
   102          57    -13.2313      7.3611      9.3000      C        5.000E-01      -           -        1.000E-02   0.000E+00   0.000E+00           F           F   0.000E+00   5.600E-01      -           -        0.000E+00      -           -        1.000E+00   1.000E+00   0.000E+00   0.000E+00   1.000E+00         -           -           -           -           -           -  
   103          57    -14.9152      6.3889      9.3000      C        5.000E-01      -           -        1.000E-02   0.000E+00   0.000E+00           F           F   0.000E+00   5.600E-01      -           -        0.000E+00      -           -        1.000E+00   1.000E+00   0.000E+00   0.000E+00   1.000E+00         -           -           -           -           -           -  
   104          57    -16.5992      5.4167      9.3000      C        5.000E-01      -           -        1.000E-02   0.000E+00   0.000E+00           F           F   0.000E+00   5.600E-01      -           -        0.000E+00      -           -        1.000E+00   1.000E+00   0.000E+00   0.000E+00   1.000E+00         -           -           -           -           -           -  
   105          57    -18.2831      4.4444      9.3000      C        5.000E-01      -           -        1.000E-02   0.000E+00   0.000E+00           F           F   0.000E+00   5.600E-01      -           -        0.000E+00      -           -        1.000E+00   1.000E+00   0.000E+00   0.000E+00   1.000E+00         -           -           -           -           -           -  
   106          57    -19.9671      3.4722      9.3000      C        5.000E-01      -           -        1.000E-02   0.000E+00   0.000E+00           F           F   0.000E+00   5.600E-01      -           -        0.000E+00      -           -        1.000E+00   1.000E+00   0.000E+00   0.000E+00   1.000E+00         -           -           -           -           -           -  
   107          69    -14.0732     -6.8750      9.3000      C        5.000E-01      -           -        1.000E-02   0.000E+00   0.000E+00           F           F   0.000E+00   5.600E-01      -           -        0.000E+00      -           -        1.000E+00   1.000E+00   0.000E+00   0.000E+00   1.000E+00         -           -           -           -           -           -  
   108          69     -6.4955    -11.2500      9.3000      C        5.000E-01      -           -        1.000E-02   0.000E+00   0.000E+00           F           F   0.000E+00   5.600E-01      -           -        0.000E+00      -           -        1.000E+00   1.000E+00   0.000E+00   0.000E+00   1.000E+00         -           -           -           -           -           -  
   109          69      1.0823    -15.6250      9.3000      C        5.000E-01      -           -        1.000E-02   0.000E+00   0.000E+00           F           F   0.000E+00   5.600E-01      -           -        0.000E+00      -           -        1.000E+00   1.000E+00   0.000E+00   0.000E+00   1.000E+00         -           -           -           -           -           -  
   110          81     12.9900     -8.7500      9.3000      C        5.000E-01      -           -        1.000E-02   0.000E+00   0.000E+00           F           F   0.000E+00   5.600E-01      -           -        0.000E+00      -           -        1.000E+00   1.000E+00   0.000E+00   0.000E+00   1.000E+00         -           -           -           -           -           -  
   111          81     12.9900      0.0000      9.3000      C        5.000E-01      -           -        1.000E-02   0.000E+00   0.000E+00           F           F   0.000E+00   5.600E-01      -           -        0.000E+00      -           -        1.000E+00   1.000E+00   0.000E+00   0.000E+00   1.000E+00         -           -           -           -           -           -  
   112          81     12.9900      8.7500      9.3000      C        5.000E-01      -           -        1.000E-02   0.000E+00   0.000E+00           F           F   0.000E+00   5.600E-01      -           -        0.000E+00      -           -        1.000E+00   1.000E+00   0.000E+00   0.000E+00   1.000E+00         -           -           -           -           -           -  
   113          93      5.8700     10.1700      9.3000      C        5.000E-01      -           -        1.000E-02   0.000E+00   0.000E+00           F           F   0.000E+00   5.600E-01      -           -        0.000E+00      -           -        1.000E+00   1.000E+00   0.000E+00   0.000E+00   1.000E+00         -           -           -           -           -           -  
   114          99    -11.6155      0.0000      9.3000      C        5.000E-01      -           -        1.000E-02   0.000E+00   0.000E+00           F           F   0.000E+00   5.600E-01      -           -        0.000E+00      -           -        1.000E+00   1.000E+00   0.000E+00   0.000E+00   1.000E+00         -           -           -           -           -           -  
   115         105      5.8700    -10.1700      9.3000      C        5.000E-01      -           -        1.000E-02   0.000E+00   0.000E+00           F           F   0.000E+00   5.600E-01      -           -        0.000E+00      -           -        1.000E+00   1.000E+00   0.000E+00   0.000E+00   1.000E+00         -           -           -           -           -           -  
   116         123      1.0823     15.6250    -12.0000      C        5.000E-01      -           -        1.000E-02   0.000E+00   0.000E+00           F           F   0.000E+00   5.600E-01      -           -        0.000E+00      -           -        1.000E+00   1.000E+00   0.000E+00   0.000E+00   1.000E+00         -           -           -           -           -           -  
   117         123     -6.4955     11.2500    -12.0000      C        5.000E-01      -           -        1.000E-02   0.000E+00   0.000E+00           F           F   0.000E+00   5.600E-01      -           -        0.000E+00      -           -        1.000E+00   1.000E+00   0.000E+00   0.000E+00   1.000E+00         -           -           -           -           -           -  
   118         123    -14.0732      6.8750    -12.0000      C        5.000E-01      -           -        1.000E-02   0.000E+00   0.000E+00           F           F   0.000E+00   5.600E-01      -           -        0.000E+00      -           -        1.000E+00   1.000E+00   0.000E+00   0.000E+00   1.000E+00         -           -           -           -           -           -  
   119         137     12.9900     -8.7500    -12.0000      C        5.000E-01      -           -        1.000E-02   0.000E+00   0.000E+00           F           F   0.000E+00   5.600E-01      -           -        0.000E+00      -           -        1.000E+00   1.000E+00   0.000E+00   0.000E+00   1.000E+00         -           -           -           -           -           -  
   120         137     12.9900      0.0000    -12.0000      C        5.000E-01      -           -        1.000E-02   0.000E+00   0.000E+00           F           F   0.000E+00   5.600E-01      -           -        0.000E+00      -           -        1.000E+00   1.000E+00   0.000E+00   0.000E+00   1.000E+00         -           -           -           -           -           -  
   121         137     12.9900      8.7500    -12.0000      C        5.000E-01      -           -        1.000E-02   0.000E+00   0.000E+00           F           F   0.000E+00   5.600E-01      -           -        0.000E+00      -           -        1.000E+00   1.000E+00   0.000E+00   0.000E+00   1.000E+00         -           -           -           -           -           -  
   122         151      5.8700     10.1700    -12.0000      C        5.000E-01      -           -        1.000E-02   0.000E+00   0.000E+00           F           F   0.000E+00   5.600E-01      -           -        0.000E+00      -           -        1.000E+00   1.000E+00   0.000E+00   0.000E+00   1.000E+00         -           -           -           -           -           -  
   123         159    -11.8655      0.0000    -12.0000      C        5.000E-01      -           -        1.000E-02   0.000E+00   0.000E+00           F           F   0.000E+00   5.600E-01      -           -        0.000E+00      -           -        1.000E+00   1.000E+00   0.000E+00   0.000E+00   1.000E+00         -           -           -           -           -           -  
   124         167      5.8700    -10.1700    -12.0000      C        5.000E-01      -           -        1.000E-02   0.000E+00   0.000E+00           F           F   0.000E+00   5.600E-01      -           -        0.000E+00      -           -        1.000E+00   1.000E+00   0.000E+00   0.000E+00   1.000E+00         -           -           -           -           -           -  
   125         175    -14.0732     -6.8750    -12.0000      C        5.000E-01      -           -        1.000E-02   0.000E+00   0.000E+00           F           F   0.000E+00   5.600E-01      -           -        0.000E+00      -           -        1.000E+00   1.000E+00   0.000E+00   0.000E+00   1.000E+00         -           -           -           -           -           -  
   126         175     -6.4955    -11.2500    -12.0000      C        5.000E-01      -           -        1.000E-02   0.000E+00   0.000E+00           F           F   0.000E+00   5.600E-01      -           -        0.000E+00      -           -        1.000E+00   1.000E+00   0.000E+00   0.000E+00   1.000E+00         -           -           -           -           -           -  
   127         175      1.0823    -15.6250    -12.0000      C        5.000E-01      -           -        1.000E-02   0.000E+00   0.000E+00           F           F   0.000E+00   5.600E-01      -           -        0.000E+00      -           -        1.000E+00   1.000E+00   0.000E+00   0.000E+00   1.000E+00         -           -           -           -           -           -  



 Members


 MemberID  joint1  joint2      Length       NElem         Volume       MGVolume          R1           SA1           SB1           t1             R2           SA2           SB2           t2          PropPot      FilledFlag   FillDensity    FillFSLoc     FillMass         Cd1          CdA1          CdB1           Ca1          CaA1           CaB1          Cp1           Cb1          AxCd1         AxCa1         AxCp1        JAxCd1       JAxCa1         JAxCp1          Cd2          CdA2          CdB2           Ca2          CaA2          CaB2           Cp2           Cb2          AxCd2         AxCa2         AxCp2        JAxCd2        JAxCa2        JAxCp2   
   (-)      (-)     (-)         (m)          (-)          (m^3)         (m^3)            (m)          (m)           (m)           (m)            (m)          (m)           (m)           (m)           (-)           (-)        (kg/m^3)         (-)          (kg)           (-)           (-)           (-)           (-)           (-)            (-)          (-)           (-)           (-)           (-)           (-)           (-)           (-)           (-)           (-)           (-)           (-)           (-)           (-)           (-)           (-)           (-)           (-)           (-)           (-)           (-)           (-)           (-)    
        1       1       4   2.50000E+01            13   4.90874E+02   0.00000E+00   2.50000E+00       -             -         5.00000E-02   2.50000E+00       -             -         5.00000E-02             F             F   0.00000E+00   0.00000E+00   0.00000E+00   5.60000E-01       -             -         0.00000E+00       -             -         1.00000E+00   1.00000E+00   0.00000E+00   0.00000E+00   1.00000E+00   0.00000E+00   0.00000E+00   1.00000E+00   5.60000E-01       -             -         0.00000E+00       -             -         1.00000E+00   1.00000E+00   0.00000E+00   0.00000E+00   1.00000E+00   0.00000E+00   0.00000E+00   1.00000E+00
       15       5       8   2.50000E+01            13   1.96350E+03   0.00000E+00   5.00000E+00       -             -         2.00000E-02   5.00000E+00       -             -         2.00000E-02             F             F   0.00000E+00   0.00000E+00   0.00000E+00   5.60000E-01       -             -         0.00000E+00       -             -         1.00000E+00   1.00000E+00   0.00000E+00   0.00000E+00   1.00000E+00   0.00000E+00   0.00000E+00   1.00000E+00   5.60000E-01       -             -         0.00000E+00       -             -         1.00000E+00   1.00000E+00   0.00000E+00   0.00000E+00   1.00000E+00   0.00000E+00   0.00000E+00   1.00000E+00
       29       9      12   2.50000E+01            13   1.96350E+03   0.00000E+00   5.00000E+00       -             -         2.00000E-02   5.00000E+00       -             -         2.00000E-02             F             F   0.00000E+00   0.00000E+00   0.00000E+00   5.60000E-01       -             -         0.00000E+00       -             -         1.00000E+00   1.00000E+00   0.00000E+00   0.00000E+00   1.00000E+00   0.00000E+00   0.00000E+00   1.00000E+00   5.60000E-01       -             -         0.00000E+00       -             -         1.00000E+00   1.00000E+00   0.00000E+00   0.00000E+00   1.00000E+00   0.00000E+00   0.00000E+00   1.00000E+00
       43      13      16   2.50000E+01            13   1.96350E+03   0.00000E+00   5.00000E+00       -             -         2.00000E-02   5.00000E+00       -             -         2.00000E-02             F             F   0.00000E+00   0.00000E+00   0.00000E+00   5.60000E-01       -             -         0.00000E+00       -             -         1.00000E+00   1.00000E+00   0.00000E+00   0.00000E+00   1.00000E+00   0.00000E+00   0.00000E+00   1.00000E+00   5.60000E-01       -             -         0.00000E+00       -             -         1.00000E+00   1.00000E+00   0.00000E+00   0.00000E+00   1.00000E+00   0.00000E+00   0.00000E+00   1.00000E+00
       57      18      17   3.50001E+01            18   2.74890E+01   0.00000E+00   5.00000E-01       -             -         9.99999E-03   5.00000E-01       -             -         9.99999E-03             F             F   0.00000E+00   0.00000E+00   0.00000E+00   5.60000E-01       -             -         0.00000E+00       -             -         1.00000E+00   1.00000E+00   0.00000E+00   0.00000E+00   1.00000E+00   0.00000E+00   0.00000E+00   1.00000E+00   5.60000E-01       -             -         0.00000E+00       -             -         1.00000E+00   1.00000E+00   0.00000E+00   0.00000E+00   1.00000E+00   0.00000E+00   0.00000E+00   1.00000E+00
       69      19      20   3.50001E+01             4   2.74890E+01   0.00000E+00   5.00000E-01       -             -         9.99999E-03   5.00000E-01       -             -         9.99999E-03             F             F   0.00000E+00   0.00000E+00   0.00000E+00   5.60000E-01       -             -         0.00000E+00       -             -         1.00000E+00   1.00000E+00   0.00000E+00   0.00000E+00   1.00000E+00   0.00000E+00   0.00000E+00   1.00000E+00   5.60000E-01       -             -         0.00000E+00       -             -         1.00000E+00   1.00000E+00   0.00000E+00   0.00000E+00   1.00000E+00   0.00000E+00   0.00000E+00   1.00000E+00
       81      21      22   3.50000E+01             4   2.74889E+01   0.00000E+00   5.00000E-01       -             -         9.99999E-03   5.00000E-01       -             -         9.99999E-03             F             F   0.00000E+00   0.00000E+00   0.00000E+00   5.60000E-01       -             -         0.00000E+00       -             -         1.00000E+00   1.00000E+00   0.00000E+00   0.00000E+00   1.00000E+00   0.00000E+00   0.00000E+00   1.00000E+00   5.60000E-01       -             -         0.00000E+00       -             -         1.00000E+00   1.00000E+00   0.00000E+00   0.00000E+00   1.00000E+00   0.00000E+00   0.00000E+00   1.00000E+00
       93      24      23   1.84764E+01             2   1.45113E+01   0.00000E+00   5.00000E-01       -             -         9.99999E-03   5.00000E-01       -             -         9.99999E-03             F             F   0.00000E+00   0.00000E+00   0.00000E+00   5.60000E-01       -             -         0.00000E+00       -             -         1.00000E+00   1.00000E+00   0.00000E+00   0.00000E+00   1.00000E+00   0.00000E+00   0.00000E+00   1.00000E+00   5.60000E-01       -             -         0.00000E+00       -             -         1.00000E+00   1.00000E+00   0.00000E+00   0.00000E+00   1.00000E+00   0.00000E+00   0.00000E+00   1.00000E+00
       99      26      25   1.87310E+01             2   1.47113E+01   0.00000E+00   5.00000E-01       -             -         9.99999E-03   5.00000E-01       -             -         9.99999E-03             F             F   0.00000E+00   0.00000E+00   0.00000E+00   5.60000E-01       -             -         0.00000E+00       -             -         1.00000E+00   1.00000E+00   0.00000E+00   0.00000E+00   1.00000E+00   0.00000E+00   0.00000E+00   1.00000E+00   5.60000E-01       -             -         0.00000E+00       -             -         1.00000E+00   1.00000E+00   0.00000E+00   0.00000E+00   1.00000E+00   0.00000E+00   0.00000E+00   1.00000E+00
      105      27      28   1.84764E+01             2   1.45113E+01   0.00000E+00   5.00000E-01       -             -         9.99999E-03   5.00000E-01       -             -         9.99999E-03             F             F   0.00000E+00   0.00000E+00   0.00000E+00   5.60000E-01       -             -         0.00000E+00       -             -         1.00000E+00   1.00000E+00   0.00000E+00   0.00000E+00   1.00000E+00   0.00000E+00   0.00000E+00   1.00000E+00   5.60000E-01       -             -         0.00000E+00       -             -         1.00000E+00   1.00000E+00   0.00000E+00   0.00000E+00   1.00000E+00   0.00000E+00   0.00000E+00   1.00000E+00
      111      17       7   4.99989E+00             1   3.92690E+00   0.00000E+00   5.00000E-01       -             -         9.99999E-03   5.00000E-01       -             -         9.99999E-03             F             F   0.00000E+00   0.00000E+00   0.00000E+00   5.60000E-01       -             -         0.00000E+00       -             -         1.00000E+00   1.00000E+00   0.00000E+00   0.00000E+00   1.00000E+00   0.00000E+00   0.00000E+00   1.00000E+00   5.60000E-01       -             -         0.00000E+00       -             -         1.00000E+00   1.00000E+00   0.00000E+00   0.00000E+00   1.00000E+00   0.00000E+00   0.00000E+00   1.00000E+00
      112      22       7   5.00000E+00             1   3.92699E+00   0.00000E+00   5.00000E-01       -             -         9.99999E-03   5.00000E-01       -             -         9.99999E-03             F             F   0.00000E+00   0.00000E+00   0.00000E+00   5.60000E-01       -             -         0.00000E+00       -             -         1.00000E+00   1.00000E+00   0.00000E+00   0.00000E+00   1.00000E+00   0.00000E+00   0.00000E+00   1.00000E+00   5.60000E-01       -             -         0.00000E+00       -             -         1.00000E+00   1.00000E+00   0.00000E+00   0.00000E+00   1.00000E+00   0.00000E+00   0.00000E+00   1.00000E+00
      113      23       7   4.99989E+00             1   3.92690E+00   0.00000E+00   5.00000E-01       -             -         9.99999E-03   5.00000E-01       -             -         9.99999E-03             F             F   0.00000E+00   0.00000E+00   0.00000E+00   5.60000E-01       -             -         0.00000E+00       -             -         1.00000E+00   1.00000E+00   0.00000E+00   0.00000E+00   1.00000E+00   0.00000E+00   0.00000E+00   1.00000E+00   5.60000E-01       -             -         0.00000E+00       -             -         1.00000E+00   1.00000E+00   0.00000E+00   0.00000E+00   1.00000E+00   0.00000E+00   0.00000E+00   1.00000E+00
      114      11      18   4.99902E+00             1   3.92622E+00   0.00000E+00   5.00000E-01       -             -         9.99999E-03   5.00000E-01       -             -         9.99999E-03             F             F   0.00000E+00   0.00000E+00   0.00000E+00   5.60000E-01       -             -         0.00000E+00       -             -         1.00000E+00   1.00000E+00   0.00000E+00   0.00000E+00   1.00000E+00   0.00000E+00   0.00000E+00   1.00000E+00   5.60000E-01       -             -         0.00000E+00       -             -         1.00000E+00   1.00000E+00   0.00000E+00   0.00000E+00   1.00000E+00   0.00000E+00   0.00000E+00   1.00000E+00
      115      11      19   4.99902E+00             1   3.92622E+00   0.00000E+00   5.00000E-01       -             -         9.99999E-03   5.00000E-01       -             -         9.99999E-03             F             F   0.00000E+00   0.00000E+00   0.00000E+00   5.60000E-01       -             -         0.00000E+00       -             -         1.00000E+00   1.00000E+00   0.00000E+00   0.00000E+00   1.00000E+00   0.00000E+00   0.00000E+00   1.00000E+00   5.60000E-01       -             -         0.00000E+00       -             -         1.00000E+00   1.00000E+00   0.00000E+00   0.00000E+00   1.00000E+00   0.00000E+00   0.00000E+00   1.00000E+00
      116      11      26   4.99900E+00             1   3.92620E+00   0.00000E+00   5.00000E-01       -             -         9.99999E-03   5.00000E-01       -             -         9.99999E-03             F             F   0.00000E+00   0.00000E+00   0.00000E+00   5.60000E-01       -             -         0.00000E+00       -             -         1.00000E+00   1.00000E+00   0.00000E+00   0.00000E+00   1.00000E+00   0.00000E+00   0.00000E+00   1.00000E+00   5.60000E-01       -             -         0.00000E+00       -             -         1.00000E+00   1.00000E+00   0.00000E+00   0.00000E+00   1.00000E+00   0.00000E+00   0.00000E+00   1.00000E+00
      117      15      21   5.00000E+00             1   3.92699E+00   0.00000E+00   5.00000E-01       -             -         9.99999E-03   5.00000E-01       -             -         9.99999E-03             F             F   0.00000E+00   0.00000E+00   0.00000E+00   5.60000E-01       -             -         0.00000E+00       -             -         1.00000E+00   1.00000E+00   0.00000E+00   0.00000E+00   1.00000E+00   0.00000E+00   0.00000E+00   1.00000E+00   5.60000E-01       -             -         0.00000E+00       -             -         1.00000E+00   1.00000E+00   0.00000E+00   0.00000E+00   1.00000E+00   0.00000E+00   0.00000E+00   1.00000E+00
      118      28      15   4.99989E+00             1   3.92690E+00   0.00000E+00   5.00000E-01       -             -         9.99999E-03   5.00000E-01       -             -         9.99999E-03             F             F   0.00000E+00   0.00000E+00   0.00000E+00   5.60000E-01       -             -         0.00000E+00       -             -         1.00000E+00   1.00000E+00   0.00000E+00   0.00000E+00   1.00000E+00   0.00000E+00   0.00000E+00   1.00000E+00   5.60000E-01       -             -         0.00000E+00       -             -         1.00000E+00   1.00000E+00   0.00000E+00   0.00000E+00   1.00000E+00   0.00000E+00   0.00000E+00   1.00000E+00
      119       3      24   2.50428E+00             1   1.96685E+00   0.00000E+00   5.00000E-01       -             -         9.99999E-03   5.00000E-01       -             -         9.99999E-03             F             F   0.00000E+00   0.00000E+00   0.00000E+00   5.60000E-01       -             -         0.00000E+00       -             -         1.00000E+00   1.00000E+00   0.00000E+00   0.00000E+00   1.00000E+00   0.00000E+00   0.00000E+00   1.00000E+00   5.60000E-01       -             -         0.00000E+00       -             -         1.00000E+00   1.00000E+00   0.00000E+00   0.00000E+00   1.00000E+00   0.00000E+00   0.00000E+00   1.00000E+00
      120      25       3   2.25000E+00             1   1.76715E+00   0.00000E+00   5.00000E-01       -             -         9.99999E-03   5.00000E-01       -             -         9.99999E-03             F             F   0.00000E+00   0.00000E+00   0.00000E+00   5.60000E-01       -             -         0.00000E+00       -             -         1.00000E+00   1.00000E+00   0.00000E+00   0.00000E+00   1.00000E+00   0.00000E+00   0.00000E+00   1.00000E+00   5.60000E-01       -             -         0.00000E+00       -             -         1.00000E+00   1.00000E+00   0.00000E+00   0.00000E+00   1.00000E+00   0.00000E+00   0.00000E+00   1.00000E+00
      121       3      27   2.50428E+00             1   1.96685E+00   0.00000E+00   5.00000E-01       -             -         9.99999E-03   5.00000E-01       -             -         9.99999E-03             F             F   0.00000E+00   0.00000E+00   0.00000E+00   5.60000E-01       -             -         0.00000E+00       -             -         1.00000E+00   1.00000E+00   0.00000E+00   0.00000E+00   1.00000E+00   0.00000E+00   0.00000E+00   1.00000E+00   5.60000E-01       -             -         0.00000E+00       -             -         1.00000E+00   1.00000E+00   0.00000E+00   0.00000E+00   1.00000E+00   0.00000E+00   0.00000E+00   1.00000E+00
      122      29       6   4.99989E+00             1   3.92690E+00   0.00000E+00   5.00000E-01       -             -         9.99999E-03   5.00000E-01       -             -         9.99999E-03             F             F   0.00000E+00   0.00000E+00   0.00000E+00   5.60000E-01       -             -         0.00000E+00       -             -         1.00000E+00   1.00000E+00   0.00000E+00   0.00000E+00   1.00000E+00   0.00000E+00   0.00000E+00   1.00000E+00   5.60000E-01       -             -         0.00000E+00       -             -         1.00000E+00   1.00000E+00   0.00000E+00   0.00000E+00   1.00000E+00   0.00000E+00   0.00000E+00   1.00000E+00
      123      30      29   3.50001E+01             4   2.74890E+01   0.00000E+00   5.00000E-01       -             -         9.99999E-03   5.00000E-01       -             -         9.99999E-03             F             F   0.00000E+00   0.00000E+00   0.00000E+00   5.60000E-01       -             -         0.00000E+00       -             -         1.00000E+00   1.00000E+00   0.00000E+00   0.00000E+00   1.00000E+00   0.00000E+00   0.00000E+00   1.00000E+00   5.60000E-01       -             -         0.00000E+00       -             -         1.00000E+00   1.00000E+00   0.00000E+00   0.00000E+00   1.00000E+00   0.00000E+00   0.00000E+00   1.00000E+00
      135      10      30   4.99902E+00             1   3.92622E+00   0.00000E+00   5.00000E-01       -             -         9.99999E-03   5.00000E-01       -             -         9.99999E-03             F             F   0.00000E+00   0.00000E+00   0.00000E+00   5.60000E-01       -             -         0.00000E+00       -             -         1.00000E+00   1.00000E+00   0.00000E+00   0.00000E+00   1.00000E+00   0.00000E+00   0.00000E+00   1.00000E+00   5.60000E-01       -             -         0.00000E+00       -             -         1.00000E+00   1.00000E+00   0.00000E+00   0.00000E+00   1.00000E+00   0.00000E+00   0.00000E+00   1.00000E+00
      136      14      33   5.00000E+00             1   3.92699E+00   0.00000E+00   5.00000E-01       -             -         9.99999E-03   5.00000E-01       -             -         9.99999E-03             F             F   0.00000E+00   0.00000E+00   0.00000E+00   5.60000E-01       -             -         0.00000E+00       -             -         1.00000E+00   1.00000E+00   0.00000E+00   0.00000E+00   1.00000E+00   0.00000E+00   0.00000E+00   1.00000E+00   5.60000E-01       -             -         0.00000E+00       -             -         1.00000E+00   1.00000E+00   0.00000E+00   0.00000E+00   1.00000E+00   0.00000E+00   0.00000E+00   1.00000E+00
      137      33      34   3.50000E+01             4   2.74889E+01   0.00000E+00   5.00000E-01       -             -         9.99999E-03   5.00000E-01       -             -         9.99999E-03             F             F   0.00000E+00   0.00000E+00   0.00000E+00   5.60000E-01       -             -         0.00000E+00       -             -         1.00000E+00   1.00000E+00   0.00000E+00   0.00000E+00   1.00000E+00   0.00000E+00   0.00000E+00   1.00000E+00   5.60000E-01       -             -         0.00000E+00       -             -         1.00000E+00   1.00000E+00   0.00000E+00   0.00000E+00   1.00000E+00   0.00000E+00   0.00000E+00   1.00000E+00
      149      34       6   5.00000E+00             1   3.92699E+00   0.00000E+00   5.00000E-01       -             -         9.99999E-03   5.00000E-01       -             -         9.99999E-03             F             F   0.00000E+00   0.00000E+00   0.00000E+00   5.60000E-01       -             -         0.00000E+00       -             -         1.00000E+00   1.00000E+00   0.00000E+00   0.00000E+00   1.00000E+00   0.00000E+00   0.00000E+00   1.00000E+00   5.60000E-01       -             -         0.00000E+00       -             -         1.00000E+00   1.00000E+00   0.00000E+00   0.00000E+00   1.00000E+00   0.00000E+00   0.00000E+00   1.00000E+00
      150      35       6   4.99989E+00             1   3.92690E+00   0.00000E+00   5.00000E-01       -             -         9.99999E-03   5.00000E-01       -             -         9.99999E-03             F             F   0.00000E+00   0.00000E+00   0.00000E+00   5.60000E-01       -             -         0.00000E+00       -             -         1.00000E+00   1.00000E+00   0.00000E+00   0.00000E+00   1.00000E+00   0.00000E+00   0.00000E+00   1.00000E+00   5.60000E-01       -             -         0.00000E+00       -             -         1.00000E+00   1.00000E+00   0.00000E+00   0.00000E+00   1.00000E+00   0.00000E+00   0.00000E+00   1.00000E+00
      151      36      35   1.84764E+01             2   1.45113E+01   0.00000E+00   5.00000E-01       -             -         9.99999E-03   5.00000E-01       -             -         9.99999E-03             F             F   0.00000E+00   0.00000E+00   0.00000E+00   5.60000E-01       -             -         0.00000E+00       -             -         1.00000E+00   1.00000E+00   0.00000E+00   0.00000E+00   1.00000E+00   0.00000E+00   0.00000E+00   1.00000E+00   5.60000E-01       -             -         0.00000E+00       -             -         1.00000E+00   1.00000E+00   0.00000E+00   0.00000E+00   1.00000E+00   0.00000E+00   0.00000E+00   1.00000E+00
      157       2      36   2.50428E+00             1   1.96685E+00   0.00000E+00   5.00000E-01       -             -         9.99999E-03   5.00000E-01       -             -         9.99999E-03             F             F   0.00000E+00   0.00000E+00   0.00000E+00   5.60000E-01       -             -         0.00000E+00       -             -         1.00000E+00   1.00000E+00   0.00000E+00   0.00000E+00   1.00000E+00   0.00000E+00   0.00000E+00   1.00000E+00   5.60000E-01       -             -         0.00000E+00       -             -         1.00000E+00   1.00000E+00   0.00000E+00   0.00000E+00   1.00000E+00   0.00000E+00   0.00000E+00   1.00000E+00
      158      37       2   2.75000E+00             1   2.15985E+00   0.00000E+00   5.00000E-01       -             -         9.99999E-03   5.00000E-01       -             -         9.99999E-03             F             F   0.00000E+00   0.00000E+00   0.00000E+00   5.60000E-01       -             -         0.00000E+00       -             -         1.00000E+00   1.00000E+00   0.00000E+00   0.00000E+00   1.00000E+00   0.00000E+00   0.00000E+00   1.00000E+00   5.60000E-01       -             -         0.00000E+00       -             -         1.00000E+00   1.00000E+00   0.00000E+00   0.00000E+00   1.00000E+00   0.00000E+00   0.00000E+00   1.00000E+00
      159      38      37   1.82310E+01             2   1.43186E+01   0.00000E+00   5.00000E-01       -             -         9.99999E-03   5.00000E-01       -             -         9.99999E-03             F             F   0.00000E+00   0.00000E+00   0.00000E+00   5.60000E-01       -             -         0.00000E+00       -             -         1.00000E+00   1.00000E+00   0.00000E+00   0.00000E+00   1.00000E+00   0.00000E+00   0.00000E+00   1.00000E+00   5.60000E-01       -             -         0.00000E+00       -             -         1.00000E+00   1.00000E+00   0.00000E+00   0.00000E+00   1.00000E+00   0.00000E+00   0.00000E+00   1.00000E+00
      165      10      38   4.99900E+00             1   3.92620E+00   0.00000E+00   5.00000E-01       -             -         9.99999E-03   5.00000E-01       -             -         9.99999E-03             F             F   0.00000E+00   0.00000E+00   0.00000E+00   5.60000E-01       -             -         0.00000E+00       -             -         1.00000E+00   1.00000E+00   0.00000E+00   0.00000E+00   1.00000E+00   0.00000E+00   0.00000E+00   1.00000E+00   5.60000E-01       -             -         0.00000E+00       -             -         1.00000E+00   1.00000E+00   0.00000E+00   0.00000E+00   1.00000E+00   0.00000E+00   0.00000E+00   1.00000E+00
      166       2      39   2.50428E+00             1   1.96685E+00   0.00000E+00   5.00000E-01       -             -         9.99999E-03   5.00000E-01       -             -         9.99999E-03             F             F   0.00000E+00   0.00000E+00   0.00000E+00   5.60000E-01       -             -         0.00000E+00       -             -         1.00000E+00   1.00000E+00   0.00000E+00   0.00000E+00   1.00000E+00   0.00000E+00   0.00000E+00   1.00000E+00   5.60000E-01       -             -         0.00000E+00       -             -         1.00000E+00   1.00000E+00   0.00000E+00   0.00000E+00   1.00000E+00   0.00000E+00   0.00000E+00   1.00000E+00
      167      39      40   1.84764E+01             2   1.45113E+01   0.00000E+00   5.00000E-01       -             -         9.99999E-03   5.00000E-01       -             -         9.99999E-03             F             F   0.00000E+00   0.00000E+00   0.00000E+00   5.60000E-01       -             -         0.00000E+00       -             -         1.00000E+00   1.00000E+00   0.00000E+00   0.00000E+00   1.00000E+00   0.00000E+00   0.00000E+00   1.00000E+00   5.60000E-01       -             -         0.00000E+00       -             -         1.00000E+00   1.00000E+00   0.00000E+00   0.00000E+00   1.00000E+00   0.00000E+00   0.00000E+00   1.00000E+00
      173      40      14   4.99989E+00             1   3.92690E+00   0.00000E+00   5.00000E-01       -             -         9.99999E-03   5.00000E-01       -             -         9.99999E-03             F             F   0.00000E+00   0.00000E+00   0.00000E+00   5.60000E-01       -             -         0.00000E+00       -             -         1.00000E+00   1.00000E+00   0.00000E+00   0.00000E+00   1.00000E+00   0.00000E+00   0.00000E+00   1.00000E+00   5.60000E-01       -             -         0.00000E+00       -             -         1.00000E+00   1.00000E+00   0.00000E+00   0.00000E+00   1.00000E+00   0.00000E+00   0.00000E+00   1.00000E+00
      174      10      31   4.99902E+00             1   3.92622E+00   0.00000E+00   5.00000E-01       -             -         9.99999E-03   5.00000E-01       -             -         9.99999E-03             F             F   0.00000E+00   0.00000E+00   0.00000E+00   5.60000E-01       -             -         0.00000E+00       -             -         1.00000E+00   1.00000E+00   0.00000E+00   0.00000E+00   1.00000E+00   0.00000E+00   0.00000E+00   1.00000E+00   5.60000E-01       -             -         0.00000E+00       -             -         1.00000E+00   1.00000E+00   0.00000E+00   0.00000E+00   1.00000E+00   0.00000E+00   0.00000E+00   1.00000E+00
      175      31      32   3.50001E+01             4   2.74890E+01   0.00000E+00   5.00000E-01       -             -         9.99999E-03   5.00000E-01       -             -         9.99999E-03             F             F   0.00000E+00   0.00000E+00   0.00000E+00   5.60000E-01       -             -         0.00000E+00       -             -         1.00000E+00   1.00000E+00   0.00000E+00   0.00000E+00   1.00000E+00   0.00000E+00   0.00000E+00   1.00000E+00   5.60000E-01       -             -         0.00000E+00       -             -         1.00000E+00   1.00000E+00   0.00000E+00   0.00000E+00   1.00000E+00   0.00000E+00   0.00000E+00   1.00000E+00
      187      32      14   4.99989E+00             1   3.92690E+00   0.00000E+00   5.00000E-01       -             -         9.99999E-03   5.00000E-01       -             -         9.99999E-03             F             F   0.00000E+00   0.00000E+00   0.00000E+00   5.60000E-01       -             -         0.00000E+00       -             -         1.00000E+00   1.00000E+00   0.00000E+00   0.00000E+00   1.00000E+00   0.00000E+00   0.00000E+00   1.00000E+00   5.60000E-01       -             -         0.00000E+00       -             -         1.00000E+00   1.00000E+00   0.00000E+00   0.00000E+00   1.00000E+00   0.00000E+00   0.00000E+00   1.00000E+00
      194       4      41   1.00000E+00             1   1.96350E+01   0.00000E+00   2.50000E+00       -             -         5.00000E-02   2.50000E+00       -             -         5.00000E-02             F             F   0.00000E+00   0.00000E+00   0.00000E+00   5.60000E-01       -             -         0.00000E+00       -             -         1.00000E+00   1.00000E+00   0.00000E+00   0.00000E+00   1.00000E+00   0.00000E+00   0.00000E+00   1.00000E+00   5.60000E-01       -             -         0.00000E+00       -             -         1.00000E+00   1.00000E+00   0.00000E+00   0.00000E+00   1.00000E+00   0.00000E+00   0.00000E+00   1.00000E+00
      223      20      15   4.99989E+00             1   3.92690E+00   0.00000E+00   5.00000E-01       -             -         9.99999E-03   5.00000E-01       -             -         9.99999E-03             F             F   0.00000E+00   0.00000E+00   0.00000E+00   5.60000E-01       -             -         0.00000E+00       -             -         1.00000E+00   1.00000E+00   0.00000E+00   0.00000E+00   1.00000E+00   0.00000E+00   0.00000E+00   1.00000E+00   5.60000E-01       -             -         0.00000E+00       -             -         1.00000E+00   1.00000E+00   0.00000E+00   0.00000E+00   1.00000E+00   0.00000E+00   0.00000E+00   1.00000E+00



Requested Member Outputs


   Label         Xi          Yi          Zi       MemberID    StartXi     StartYi     StartZi      EndXi       EndYi       EndZi        Loc    
    (-)          (m)         (m)         (m)        (-)         (m)         (m)         (m)         (m)         (m)         (m)         (-)    



 Requested Joint Outputs


   Label         Xi          Yi          Zi      InpJointID
    (-)          (m)         (m)         (m)        (-)    

This summary file was closed on 18-Jun-2026 at 11:17:15.

