
This summary file was generated by TurbSim (from OpenFAST-v5.0.0) on 17-Jun-2026 at 10:46:28.


Runtime Options:

   2318573  Random seed #1
    RANLUX  Type of random number generator
         F  Output binary HH turbulence parameters?
         F  Output formatted turbulence parameters?
         F  Output AeroDyn HH files?
         T  Output AeroDyn FF files?
         F  Output BLADED FF files?
         T  Output tower data?
         F  Output HAWC FF files?
         F  Output formatted FF files?
         T  Output coherent turbulence time step file?
 0 -  NONE  IEC turbulence models scaled to exact specified standard deviation


Turbine/Model Specifications:

        15  Vertical grid-point matrix dimension
        15  Horizontal grid-point matrix dimension
     0.050  Time step [seconds]
  4200.000  Analysis time [seconds]
  4200.000  Usable output time [seconds]
    87.000  Hub height [m]
   150.000  Grid height [m]
   150.000  Grid width [m]
     0.000  Vertical flow angle [degrees]
     0.000  Horizontal flow angle [degrees]


Meteorological Boundary Conditions:

    IECKAI  IEC Kaimal spectral model
         1  IEC standard: IEC 61400-1 Ed. 3: 2005
         A  IEC turbulence characteristic
       NTM  IEC Normal Turbulence Model
       N/A  IEC Extreme Turbulence Model (ETM) "c" parameter [m/s]
       PL   Wind profile type
    87.000  Reference height [m]
    50.000  Reference wind speed [m/s]
       N/A  Jet height [m]
     0.200  Power law exponent
     0.030  Surface roughness length [m]


Non-IEC Meteorological Boundary Conditions:

       N/A  Site latitude [degrees]
       N/A  Gradient Richardson number
       N/A  Friction or shear velocity [m/s]
       N/A  Mixing layer depth [m]
       N/A  Mean hub u'w' Reynolds stress
       N/A  Mean hub u'v' Reynolds stress
       N/A  Mean hub v'w' Reynolds stress


Spatial Coherence Models:

       IEC  u-component coherence model
      NONE  v-component coherence model
      NONE  w-component coherence model
(   12.000, 0.353E-03)  u-component coherence parameters
                   N/A  v-component coherence parameters
                   N/A  w-component coherence parameters
       N/A  Coherence exponent


You have requested that the following file(s) be generated:

   turbsim.bts (AeroDyn/TurbSim full-field wind file)


Turbulence Simulation Scaling Parameter Summary:

   Turbulence model used                            =  IEC Kaimal
   Turbulence characteristic                        =  A
   IEC turbulence type                              =  Normal Turbulence Model
   IEC standard                                     =  IEC 61400-1 Ed. 3: 2005
   Mean wind speed at hub height                    =   50.000 m/s
   Expected value of turbulence intensity at 15 m/s =   16.000%
   Characteristic value of standard deviation       =    6.896 m/s
   Turbulence scale                                 =   42.000 m
   u-component integral scale                       =  340.200 m
   Coherency scale                                  =  340.200 m
   Characteristic value of hub turbulence intensity =   13.792%
   Gradient Richardson number                       =    0.000

   Wind profile type                                =  Power law
   Power law exponent                               =    0.200
   Mean shear across rotor disk                     =    0.153 (m/s)/m
   Assumed rotor diameter                           =  150.000 m
   Surface roughness length                         =    0.030 m

   Nyquist frequency of turbulent wind field        =   10.000 Hz

   Number of time steps in the FFT                  =    84000
   Number of time steps output                      =    84000
   Number of points simulated                       =      226


Mean Flow Angles:

   Vertical   =   0.0 degrees
   Horizontal =   0.0 degrees

Mean Wind Speed Profile:

   Height    Wind Speed   Horizontal Angle  Vertical Angle  U-comp (X)   V-comp (Y)   W-comp (Z)
     (m)        (m/s)         (degrees)       (degrees)       (m/s)        (m/s)        (m/s)   
   ------    ----------   ----------------  --------------  ----------   ----------   ----------
    162.0       56.62            0.00            0.00         56.62         0.00         0.00
    151.3       55.85            0.00            0.00         55.85         0.00         0.00
    140.6       55.04            0.00            0.00         55.04         0.00         0.00
    129.9       54.17            0.00            0.00         54.17         0.00         0.00
    119.1       53.25            0.00            0.00         53.25         0.00         0.00
    108.4       52.25            0.00            0.00         52.25         0.00         0.00
     97.7       51.17            0.00            0.00         51.17         0.00         0.00
     87.0       50.00            0.00            0.00         50.00         0.00         0.00
     76.3       48.70            0.00            0.00         48.70         0.00         0.00
     65.6       47.25            0.00            0.00         47.25         0.00         0.00
     54.9       45.59            0.00            0.00         45.59         0.00         0.00
     44.1       43.66            0.00            0.00         43.66         0.00         0.00
     33.4       41.29            0.00            0.00         41.29         0.00         0.00
     22.7       38.22            0.00            0.00         38.22         0.00         0.00
     12.0       33.64            0.00            0.00         33.64         0.00         0.00
      1.3       21.52            0.00            0.00         21.52         0.00         0.00


Harvested Random Seeds after Generation of the Random Numbers:

    264589500 K 1
            0 K 2


Hub-Height Simulated Turbulence Statistical Summary:

   Type of Wind        Min (m/s)   Mean (m/s)    Max (m/s)  Sigma (m/s)       TI (%)
   ----------------    ---------   ----------    ---------  -----------       ------
   Longitudinal (u)        24.47        50.00        78.94        6.993       13.985
   Lateral (v)            -22.02        -0.00        20.55        5.409       10.818
   Vertical (w)           -13.35         0.00        13.51        3.280        6.560
   U component             24.47        50.00        78.94        6.993       13.985
   V component            -22.02        -0.00        20.55        5.409       10.818
   W component            -13.35         0.00        13.51        3.280        6.560
   Horizontal (U&V)        24.66        50.30        78.94        6.961       13.841
   Total                   24.79        50.40        78.95        6.947       13.782

                       Min Reynolds     Mean Reynolds    Max Reynolds    Correlation
   Product             Stress (m/s)^2   Stress (m/s)^2   Stress (m/s)^2  Coefficient
   ----------------    --------------   --------------   --------------  -----------
   u'w'                   -234.971            -0.303           276.511        -0.013
   u'v'                   -330.080             1.285           317.211         0.034
   v'w'                   -141.019            -0.036           183.017        -0.002


   Friction Velocity (Ustar)  =      0.551 m/s
   Maximum Instantaneous TKE  =    419.460 (m/s)^2
   Maximum Instantaneous CTKE =    183.415 (m/s)^2


Grid Point Variance Summary:

   Y-coord  -75.00  -64.29  -53.57  -42.86  -32.14  -21.43  -10.71    0.00   10.71   21.43   32.14   42.86   53.57   64.29   75.00

   Height   Standard deviation at grid points for the u component:
   162.00    6.865   6.858   6.779   6.897   6.946   6.963   6.979   6.901   6.870   6.825   6.714   6.921   6.980   7.096   7.194
   151.29    6.828   6.857   6.892   6.883   6.926   6.974   7.037   6.959   6.882   6.814   6.847   6.932   7.031   7.176   7.103
   140.57    6.787   6.729   6.858   6.807   6.975   6.977   7.007   6.829   6.860   6.835   6.911   7.045   7.102   7.127   7.124
   129.86    6.798   6.813   6.875   6.888   7.001   6.901   6.987   6.924   6.776   6.817   6.899   7.065   7.162   7.125   7.079
   119.14    6.742   6.736   6.758   6.854   6.941   6.969   6.895   6.993   6.905   6.850   6.984   7.015   7.105   6.959   6.959
   108.43    6.791   6.705   6.725   6.815   6.958   7.005   6.967   6.903   6.872   6.941   6.955   6.897   6.921   7.004   6.989
    97.71    6.851   6.754   6.739   6.864   6.905   7.003   6.894   6.967   6.899   6.903   6.947   6.863   6.899   6.864   6.894
    87.00    6.852   6.705   6.794   6.788   6.827   6.911   6.972   6.993   6.874   6.850   6.848   6.874   6.819   6.761   6.713
    76.29    6.859   6.772   6.758   6.775   6.769   6.843   6.830   6.828   7.000   6.791   6.802   6.778   6.708   6.656   6.611
    65.57    6.919   6.912   6.926   6.875   6.773   6.750   6.849   6.825   6.884   6.706   6.697   6.741   6.677   6.612   6.606
    54.86    7.049   6.948   6.976   6.909   6.868   6.802   6.866   6.706   6.724   6.742   6.767   6.769   6.703   6.675   6.551
    44.14    7.086   6.907   6.836   6.924   6.790   6.794   6.753   6.627   6.683   6.646   6.677   6.617   6.695   6.671   6.598
    33.43    6.971   6.935   6.760   6.686   6.640   6.623   6.584   6.690   6.719   6.708   6.612   6.545   6.633   6.639   6.627
    22.71    6.873   6.785   6.713   6.654   6.628   6.680   6.549   6.630   6.681   6.579   6.645   6.598   6.638   6.630   6.701
    12.00    6.822   6.714   6.688   6.613   6.675   6.622   6.714   6.681   6.708   6.724   6.596   6.708   6.581   6.615   6.698

   Height   Standard deviation at grid points for the v component:
   162.00    5.409   5.409   5.409   5.409   5.409   5.409   5.409   5.409   5.409   5.409   5.409   5.409   5.409   5.409   5.409
   151.29    5.409   5.409   5.409   5.409   5.409   5.409   5.409   5.409   5.409   5.409   5.409   5.409   5.409   5.409   5.409
   140.57    5.409   5.409   5.409   5.409   5.409   5.409   5.409   5.409   5.409   5.409   5.409   5.409   5.409   5.409   5.409
   129.86    5.409   5.409   5.409   5.409   5.409   5.409   5.409   5.409   5.409   5.409   5.409   5.409   5.409   5.409   5.409
   119.14    5.409   5.409   5.409   5.409   5.409   5.409   5.409   5.409   5.409   5.409   5.409   5.409   5.409   5.409   5.409
   108.43    5.409   5.409   5.409   5.409   5.409   5.409   5.409   5.409   5.409   5.409   5.409   5.409   5.409   5.409   5.409
    97.71    5.409   5.409   5.409   5.409   5.409   5.409   5.409   5.409   5.409   5.409   5.409   5.409   5.409   5.409   5.409
    87.00    5.409   5.409   5.409   5.409   5.409   5.409   5.409   5.409   5.409   5.409   5.409   5.409   5.409   5.409   5.409
    76.29    5.409   5.409   5.409   5.409   5.409   5.409   5.409   5.409   5.409   5.409   5.409   5.409   5.409   5.409   5.409
    65.57    5.409   5.409   5.409   5.409   5.409   5.409   5.409   5.409   5.409   5.409   5.409   5.409   5.409   5.409   5.409
    54.86    5.409   5.409   5.409   5.409   5.409   5.409   5.409   5.409   5.409   5.409   5.409   5.409   5.409   5.409   5.409
    44.14    5.409   5.409   5.409   5.409   5.409   5.409   5.409   5.409   5.409   5.409   5.409   5.409   5.409   5.409   5.409
    33.43    5.409   5.409   5.409   5.409   5.409   5.409   5.409   5.409   5.409   5.409   5.409   5.409   5.409   5.409   5.409
    22.71    5.409   5.409   5.409   5.409   5.409   5.409   5.409   5.409   5.409   5.409   5.409   5.409   5.409   5.409   5.409
    12.00    5.409   5.409   5.409   5.409   5.409   5.409   5.409   5.409   5.409   5.409   5.409   5.409   5.409   5.409   5.409

   Height   Standard deviation at grid points for the w component:
   162.00    3.280   3.280   3.280   3.280   3.280   3.280   3.280   3.280   3.280   3.280   3.280   3.280   3.280   3.280   3.280
   151.29    3.280   3.280   3.280   3.280   3.280   3.280   3.280   3.280   3.280   3.280   3.280   3.280   3.280   3.280   3.280
   140.57    3.280   3.280   3.280   3.280   3.280   3.280   3.280   3.280   3.280   3.280   3.280   3.280   3.280   3.280   3.280
   129.86    3.280   3.280   3.280   3.280   3.280   3.280   3.280   3.280   3.280   3.280   3.280   3.280   3.280   3.280   3.280
   119.14    3.280   3.280   3.280   3.280   3.280   3.280   3.280   3.280   3.280   3.280   3.280   3.280   3.280   3.280   3.280
   108.43    3.280   3.280   3.280   3.280   3.280   3.280   3.280   3.280   3.280   3.280   3.280   3.280   3.280   3.280   3.280
    97.71    3.280   3.280   3.280   3.280   3.280   3.280   3.280   3.280   3.280   3.280   3.280   3.280   3.280   3.280   3.280
    87.00    3.280   3.280   3.280   3.280   3.280   3.280   3.280   3.280   3.280   3.280   3.280   3.280   3.280   3.280   3.280
    76.29    3.280   3.280   3.280   3.280   3.280   3.280   3.280   3.280   3.280   3.280   3.280   3.280   3.280   3.280   3.280
    65.57    3.280   3.280   3.280   3.280   3.280   3.280   3.280   3.280   3.280   3.280   3.280   3.280   3.280   3.280   3.280
    54.86    3.280   3.280   3.280   3.280   3.280   3.280   3.280   3.280   3.280   3.280   3.280   3.280   3.280   3.280   3.280
    44.14    3.280   3.280   3.280   3.280   3.280   3.280   3.280   3.280   3.280   3.280   3.280   3.280   3.280   3.280   3.280
    33.43    3.280   3.280   3.280   3.280   3.280   3.280   3.280   3.280   3.280   3.280   3.280   3.280   3.280   3.280   3.280
    22.71    3.280   3.280   3.280   3.280   3.280   3.280   3.280   3.280   3.280   3.280   3.280   3.280   3.280   3.280   3.280
    12.00    3.280   3.280   3.280   3.280   3.280   3.280   3.280   3.280   3.280   3.280   3.280   3.280   3.280   3.280   3.280

   Mean standard deviation across all grid points:
      u component:    6.828 m/s
      v component:    5.409 m/s
      w component:    3.280 m/s


U-component (X) statistics from the interpolated hub point:

   Mean =  50.0000 m/s
   TI   =  13.9851 %


Processing complete.  38.406 CPU seconds used.
